Circuit: * C:\Users\Manuel Mollon\Dropbox\potencia\TP1\Ejercicio4\4a-copy.asc

Direct Newton iteration for .op point succeeded.

Date: Wed Apr 14 23:43:46 2021
Total elapsed time: 165.229 seconds.

tnom = 27
temp = 27
method = modified trap
totiter = 26802933
traniter = 26802902
tranpoints = 10076346
accept = 10060999
rejected = 15347
matrix size = 26
fillins = 10
solver = Alternate
Matrix Compiler1: 2.93 KB object code size  1.6/0.8/[0.5]
Matrix Compiler2: 2.63 KB object code size  0.6/1.3/[0.4]

