Circuit: * C:\Users\Manuel Mollon\Dropbox\potencia\TP1\Ejercicio4\4a.asc

Direct Newton iteration for .op point succeeded.

Date: Thu Apr 15 02:34:27 2021
Total elapsed time: 48.949 seconds.

tnom = 27
temp = 27
method = modified trap
totiter = 8176706
traniter = 8176675
tranpoints = 2291212
accept = 1756939
rejected = 534273
matrix size = 26
fillins = 9
solver = Alternate
Matrix Compiler1: 2.80 KB object code size  0.7/0.6/[0.3]
Matrix Compiler2: 2.60 KB object code size  0.4/1.0/[0.3]

