Circuit: * C:\Users\Manuel Mollon\Dropbox\potencia\TP1\Ejercicio4\4a.asc

Direct Newton iteration for .op point succeeded.

Date: Thu Apr 15 20:22:08 2021
Total elapsed time: 50.839 seconds.

tnom = 27
temp = 27
method = modified trap
totiter = 6655250
traniter = 6655219
tranpoints = 1976725
accept = 1618482
rejected = 358243
matrix size = 26
fillins = 9
solver = Alternate
Matrix Compiler1: 2.80 KB object code size  1.4/0.8/[0.5]
Matrix Compiler2: 2.60 KB object code size  0.6/0.8/[0.3]

