Circuit: * C:\potencia\Ejercicio 1\Ejercicio1.asc

Warning: Multiple definitions of model "aons66402" Type: Vdmos1
Direct Newton iteration for .op point succeeded.

Date: Sat Apr 03 15:51:54 2021
Total elapsed time: 12.819 seconds.

tnom = 27
temp = 27
method = modified trap
totiter = 4200188
traniter = 4200182
tranpoints = 2004889
accept = 2003673
rejected = 1216
matrix size = 12
fillins = 2
solver = Normal
Matrix Compiler1: 562 bytes object code size  0.1/0.1/[0.1]
Matrix Compiler2: off  [0.1]/0.1/0.1

