Circuit: * C:\potencia\TP1\Ejercicio1\Ejercicio1.asc

Warning: Multiple definitions of model "aons66402" Type: Vdmos1
Direct Newton iteration for .op point succeeded.

Date: Sat Apr 10 18:06:31 2021
Total elapsed time: 12.170 seconds.

tnom = 27
temp = 27
method = modified trap
totiter = 4213742
traniter = 4213737
tranpoints = 2006324
accept = 2004635
rejected = 1689
matrix size = 12
fillins = 1
solver = Normal
Matrix Compiler1: 634 bytes object code size  0.1/0.1/[0.1]
Matrix Compiler2: 888 bytes object code size  0.1/0.1/[0.1]

