Circuit: * C:\Users\user\Documents\ITBA\Quinto\Segundo cuatrimestre\Potencia\Trabajos practicos\potencia\TP1\Ejercicio3\3b.asc

Warning: Multiple definitions of model "aons66402" Type: Vdmos1
Direct Newton iteration for .op point succeeded.

Date: Sun May 23 16:44:14 2021
Total elapsed time: 2.337 seconds.

tnom = 27
temp = 27
method = modified trap
totiter = 698608
traniter = 698576
tranpoints = 225664
accept = 216829
rejected = 8835
matrix size = 26
fillins = 9
solver = Normal
Matrix Compiler1: 2.18 KB object code size  0.4/0.2/[0.2]
Matrix Compiler2: off  [0.2]/0.3/0.3

