Circuit: * C:\Users\user\Documents\ITBA\Quinto\Segundo cuatrimestre\Potencia\Trabajos practicos\potencia\TP1\Ejercicio3\3b.asc

Warning: Multiple definitions of model "aons66402" Type: Vdmos1
Direct Newton iteration for .op point succeeded.

Date: Wed Apr 14 22:30:58 2021
Total elapsed time: 41.227 seconds.

tnom = 27
temp = 27
method = modified trap
totiter = 4758095
traniter = 4758064
tranpoints = 2011865
accept = 2008060
rejected = 3805
matrix size = 26
fillins = 9
solver = Normal
Matrix Compiler1: 2.18 KB object code size  0.3/0.2/[0.2]
Matrix Compiler2: off  [0.2]/0.2/0.2

