Circuit: * C:\Users\user\Documents\ITBA\Quinto\Segundo cuatrimestre\Potencia\Trabajos practicos\potencia\TP1\Ejercicio3\3b.asc

Warning: Multiple definitions of model "aons66402" Type: Vdmos1
Direct Newton iteration for .op point succeeded.

Date: Mon May 24 18:49:04 2021
Total elapsed time: 4.272 seconds.

tnom = 27
temp = 27
method = modified trap
totiter = 1390402
traniter = 1390371
tranpoints = 424273
accept = 381427
rejected = 42846
matrix size = 26
fillins = 9
solver = Normal
Matrix Compiler1: 2.18 KB object code size  0.4/0.2/[0.2]
Matrix Compiler2: off  [0.2]/0.3/0.3

