Circuit: * C:\Users\Manuel Mollon\Dropbox\potencia\TP1\Ejercicio3\3b.asc

Direct Newton iteration failed to find .op point.  (Use ".option noopiter" to skip.)
Starting Gmin stepping
Gmin = 10
Gmin = 1.07374
Gmin = 0.115292
Gmin = 0.0123794
Gmin = 0.00132923
Gmin = 0.000142725
Gmin = 1.5325e-005
Gmin = 1.6455e-006
Gmin = 1.76685e-007
Gmin = 1.89714e-008
Gmin = 2.03704e-009
Gmin = 2.18725e-010
Gmin = 2.34854e-011
Gmin = 2.52173e-012
Gmin = 2.70769e-013
Gmin = 0
Gmin stepping succeeded in finding the operating point.


Date: Tue Apr 13 00:15:38 2021
Total elapsed time: 116.116 seconds.

tnom = 27
temp = 27
method = modified trap
totiter = 4071846
traniter = 4071447
tranpoints = 2019352
accept = 2013538
rejected = 5814
matrix size = 35
fillins = 25
solver = Alternate
Matrix Compiler1: 4.30 KB object code size  1.0/0.8/[0.5]
Matrix Compiler2:     254 opcodes  1.0/[0.8]/1.1

