Circuit: * C:\Users\user\Documents\ITBA\Quinto\Segundo cuatrimestre\Potencia\Trabajos practicos\potencia\TP1\Ejercicio3\Draft1.asc

WARNING: Node NC_02 is floating.

WARNING: Less than two connections to node NC_01.  This node is used by D1.
WARNING: Less than two connections to node NC_02.  This node is used by D1.
.OP point found by inspection.

Date: Sat Jun 05 17:26:17 2021
Total elapsed time: 3.401 seconds.

tnom = 27
temp = 27
method = modified trap
totiter = 3320064
traniter = 3320064
tranpoints = 1217321
accept = 1067277
rejected = 150044
matrix size = 13
fillins = 5
solver = Normal
Matrix Compiler1: 620 bytes object code size  0.1/0.1/[0.1]
Matrix Compiler2: 925 bytes object code size  0.1/0.1/[0.1]

