Circuit: * C:\Users\user\Documents\ITBA\Quinto\Segundo cuatrimestre\Potencia\Trabajos practicos\potencia\TP2\Parte 2\Simulacion.asc

Warning: Multiple definitions of model "aons66402" Type: Vdmos1
C3: Increased Cpar to 1e-011
C1: Increased Cpar to 1e-011
WARNING: Specified period is not longer than the sum of Trise, Tfall, and Ton for v4.  Increasing period to 5.002e-006
WARNING: Less than two connections to node NC_04.  This node is used by R:U2:8.
WARNING: Less than two connections to node OSC.  This node is used by R:U2:18.
Direct Newton iteration for .op point succeeded.
Ignoring empty pin current: Ix(u2:gnd)
Ignoring empty pin current: Ix(u2:gnd)

Date: Wed Jun 09 11:28:45 2021
Total elapsed time: 17.850 seconds.

tnom = 27
temp = 27
method = modified trap
totiter = 2232304
traniter = 2232279
tranpoints = 740133
accept = 693198
rejected = 46935
matrix size = 74
fillins = 7
solver = Normal
Thread vector: 8.8/5.4[2] 3.3/1.9[2] 0.5/0.6[1] 0.3/0.9[1]  2592/500
Matrix Compiler1: 3.34 KB object code size  0.7/0.4/[0.3]
Matrix Compiler2: off  [0.4]/0.6/0.6

