Circuit: * C:\Users\user\Documents\ITBA\Quinto\Segundo cuatrimestre\Potencia\Trabajos practicos\potencia\TP2\Parte 2\Simulacion.asc

Warning: Multiple definitions of model "aons66402" Type: Vdmos1
C3: Increased Cpar to 1e-011
C1: Increased Cpar to 1e-011
.OP point found by inspection.

Date: Sun Jun 06 23:59:06 2021
Total elapsed time: 6.895 seconds.

tnom = 27
temp = 27
method = modified trap
totiter = 3634916
traniter = 3634916
tranpoints = 1128967
accept = 1028540
rejected = 100427
matrix size = 20
fillins = 0
solver = Normal
Matrix Compiler1: 1.23 KB object code size  0.3/0.2/[0.1]
Matrix Compiler2: 1.57 KB object code size  0.2/0.2/[0.2]

