Circuit: * C:\potencia\TP1\Ejercicio1\Simulacion\Ejercicio1.asc

Warning: Multiple definitions of model "aons66402" Type: Vdmos1
Direct Newton iteration for .op point succeeded.
Heightened Def Con from 0.000236632 to 0.000236633
Heightened Def Con from 0.000256623 to 0.000256623

Date: Sun Apr 18 12:05:10 2021
Total elapsed time: 48.221 seconds.

tnom = 27
temp = 27
method = modified trap
totiter = 9669874
traniter = 9669869
tranpoints = 4019016
accept = 4013606
rejected = 5412
matrix size = 12
fillins = 1
solver = Normal
Matrix Compiler1: 634 bytes object code size  0.1/0.1/[0.1]
Matrix Compiler2: 888 bytes object code size  0.1/0.1/[0.1]

