Circuit: * C:\potencia\TP1\Ejercicio1\Simulacion\Ejercicio1.asc

Warning: Multiple definitions of model "aons66402" Type: Vdmos1
Direct Newton iteration for .op point succeeded.
Heightened Def Con from 0.000730786 to 0.000730786

Date: Mon Apr 12 01:46:05 2021
Total elapsed time: 12.013 seconds.

tnom = 27
temp = 27
method = modified trap
totiter = 4183651
traniter = 4183646
tranpoints = 2003408
accept = 2002477
rejected = 932
matrix size = 12
fillins = 1
solver = Normal
Matrix Compiler1: 634 bytes object code size  0.1/0.1/[0.1]
Matrix Compiler2: off  [0.1]/0.1/0.1

