Circuit: * C:\potencia\TP1\Ejercicio1\Simulacion\Ejercicio1.asc

Warning: Multiple definitions of model "aons66402" Type: Vdmos1
Direct Newton iteration for .op point succeeded.
Heightened Def Con from 0.000730786 to 0.000730786

Date: Thu Apr 15 14:25:10 2021
Total elapsed time: 34.542 seconds.

tnom = 27
temp = 27
method = modified trap
totiter = 8372737
traniter = 8372732
tranpoints = 4006904
accept = 4005019
rejected = 1886
matrix size = 12
fillins = 1
solver = Normal
Matrix Compiler1:      37 opcodes  0.1/[0.1]/0.2
Matrix Compiler2: 888 bytes object code size  0.1/0.1/[0.1]

