Circuit: * C:\Users\user\Documents\ITBA\Quinto\Segundo cuatrimestre\Potencia\Trabajos practicos\potencia\TP1\Ejercicio2\sim2.asc

Direct Newton iteration for .op point succeeded.

Date: Wed Apr 14 23:27:42 2021
Total elapsed time: 11.992 seconds.

tnom = 27
temp = 27
method = modified trap
totiter = 4038639
traniter = 4038634
tranpoints = 2009512
accept = 2006905
rejected = 2607
matrix size = 8
fillins = 0
solver = Normal
Matrix Compiler1: 246 bytes object code size  0.1/0.1/[0.0]
Matrix Compiler2: off  [0.0]/0.1/0.1

