Circuit: * C:\Users\user\Documents\ITBA\Quinto\Segundo cuatrimestre\Potencia\Trabajos practicos\potencia\TP1\Ejercicio2\sim2.asc

Direct Newton iteration for .op point succeeded.

Date: Thu Apr 15 23:18:04 2021
Total elapsed time: 0.737 seconds.

tnom = 27
temp = 27
method = modified trap
totiter = 350274
traniter = 350269
tranpoints = 130165
accept = 102432
rejected = 27733
matrix size = 8
fillins = 0
solver = Normal
Matrix Compiler1: 246 bytes object code size  0.2/0.1/[0.1]
Matrix Compiler2: off  [0.1]/0.2/0.2

