Circuit: * C:\Users\user\Documents\ITBA\Quinto\Segundo cuatrimestre\Potencia\Trabajos practicos\potencia\TP1\Ejercicio2\sim2.asc

Direct Newton iteration for .op point succeeded.

Date: Fri Apr 16 09:30:04 2021
Total elapsed time: 14.914 seconds.

tnom = 27
temp = 27
method = modified trap
totiter = 4039171
traniter = 4039166
tranpoints = 2009777
accept = 2007092
rejected = 2685
matrix size = 8
fillins = 0
solver = Normal
Matrix Compiler1: 246 bytes object code size  0.2/0.1/[0.1]
Matrix Compiler2: 486 bytes object code size  0.2/0.2/[0.1]

