Circuit: * C:\potencia\TP1\Ejercicio1\PruebaEj2\sim2.asc

Direct Newton iteration for .op point succeeded.

Date: Mon Apr 12 19:08:46 2021
Total elapsed time: 0.402 seconds.

tnom = 27
temp = 27
method = modified trap
totiter = 372025
traniter = 372020
tranpoints = 137264
accept = 107827
rejected = 29437
matrix size = 8
fillins = 0
solver = Normal
Matrix Compiler1: 246 bytes object code size  0.0/0.0/[0.0]
Matrix Compiler2: 486 bytes object code size  0.0/0.1/[0.0]

