Circuit: * C:\Users\user\Documents\ITBA\Quinto\Segundo cuatrimestre\Potencia\Trabajos practicos\potencia\TP2\Parte 3\Simulacion.asc

Warning: Multiple definitions of model "aons66402" Type: Vdmos1
C3: Increased Cpar to 4.7e-011
C1: Increased Cpar to 4.7e-011
WARNING: Less than two connections to node OSC.  This node is used by R:U2:18.
Direct Newton iteration for .op point succeeded.
Ignoring empty pin current: Ix(u2:gnd)
Ignoring empty pin current: Ix(u2:gnd)

Date: Mon Jun 21 19:37:41 2021
Total elapsed time: 9.327 seconds.

tnom = 27
temp = 27
method = modified trap
totiter = 1405446
traniter = 1405421
tranpoints = 467130
accept = 434196
rejected = 32934
matrix size = 73
fillins = 15
solver = Normal
Thread vector: 3.3/2.6[2] 1.7/1.7[1] 0.4/0.6[1] 0.2/0.8[1]  2592/500
Matrix Compiler1: 3.73 KB object code size  0.8/0.4/[0.3]
Matrix Compiler2: 5.10 KB object code size  0.4/0.9/[0.4]

