Circuit: * C:\Users\user\Documents\ITBA\Quinto\Segundo cuatrimestre\Potencia\Trabajos practicos\potencia\TP2\Parte 3\Simulacion.asc

Warning: Multiple definitions of model "aons66402" Type: Vdmos1
C1: Increased Cpar to 1e-010
WARNING: Less than two connections to node OSC.  This node is used by R:U2:18.
Direct Newton iteration for .op point succeeded.
Ignoring empty pin current: Ix(u2:gnd)
Ignoring empty pin current: Ix(u2:gnd)

Date: Sat Jun 19 20:33:42 2021
Total elapsed time: 9.377 seconds.

tnom = 27
temp = 27
method = modified trap
totiter = 1480734
traniter = 1480709
tranpoints = 471326
accept = 435358
rejected = 35968
matrix size = 73
fillins = 15
solver = Normal
Thread vector: 3.9/3.3[2] 1.8/1.7[1] 0.5/0.7[1] 0.2/1.9[1]  2592/500
Matrix Compiler1: 3.73 KB object code size  0.7/0.4/[0.3]
Matrix Compiler2: 5.10 KB object code size  0.4/0.7/[0.4]

